63
Coordinates from ORCA-job TSOA_pip
  Cu  0.79332582846921     -0.38190767794719      0.08802961461815
  C   -0.90540948725721      3.65363239102281     -0.43497292009665
  C   -2.25176500196079      3.35931750636675     -0.24256078854197
  C   -2.62242298807369      2.00120436685531     -0.12225432671427
  C   -1.62056546610595      1.01119396042392     -0.23659287303131
  N   -0.32558829149009      1.32160913676216     -0.44834998609964
  C   0.00011357917524      2.59237238572157     -0.52268855034323
  C   -3.95567762668986      1.57088264781368      0.13536119653907
  C   -4.26639790980253      0.26009563677269      0.28627485579719
  C   -3.27980932032986     -0.76300401276974      0.18066124512821
  C   -1.95484518923777     -0.36909403432730     -0.09912711596654
  C   -3.55740597205877     -2.13882205348242      0.35513396365604
  C   -2.49750949515316     -3.03804747479731      0.25038911564279
  C   -1.23015033799873     -2.54000751058364     -0.05185169376288
  N   -0.95680553275935     -1.26123848412875     -0.23703389096932
  H   -0.39816470180065     -3.22136885715762     -0.17871309616941
  C   -2.66638157343509     -4.51698857723274      0.42846534348236
  H   -5.28507830259516     -0.02106049309877      0.50088042397548
  C   -4.95714338756492     -2.58854412114272      0.64391990962701
  C   -3.29309911825420      4.43157546677187     -0.15150692011185
  H   -4.73281833867680      2.31223992795911      0.23023077853026
  H   1.05286446497384      2.79852147767352     -0.66351043053731
  C   -0.38790607457949      5.05552503210127     -0.55488323654636
  H   0.69383483670718      5.04654453756833     -0.65891167219404
  H   -0.81327294945845      5.54941290609746     -1.42757889333183
  H   -0.64325700240129      5.63776842907565      0.32893391765602
  H   -3.73604799455277      4.43813461153764      0.84392455498906
  H   -2.87152006576875      5.41094807973680     -0.34623685418495
  H   -4.08655005967309      4.24644098977166     -0.87362777646174
  H   -5.30526053915805     -2.15681597866752      1.58197602459509
  H   -5.62743630221480     -2.26047201802536     -0.14947535894713
  H   -5.01790097334172     -3.66805912460031      0.72010128004258
  H   -1.70702152239070     -5.01679353218325      0.32286726251086
  H   -3.06609442012949     -4.74381261381110      1.41581575239492
  H   -3.34763520882854     -4.91955587807165     -0.31982434999223
  N   0.74056523875356     -0.51671103297300      2.04756334046354
  H   2.44252582974876      1.26365195922072     -1.87567888319829
  C   2.91294902190934      1.21397161508844     -0.90447546140311
  C   2.74624930317194      0.09355429970718     -0.09957003433118
  C   3.69752686637136      2.26354532232674     -0.45279187595034
  C   3.44336874330153     -0.02675107309331      1.09741237426802
  C   4.34028738533255      2.18198574213001      0.77055616969366
  H   3.81817848810770      3.13912516896603     -1.07477358378893
  C   4.21396918743866      1.03158006738334      1.53763097454157
  H   3.35822286445063     -0.92418819380125      1.68775894673388
  H   4.95740858368529      2.99793307054783      1.11447462442990
  H   4.73345216369635      0.94930195376731      2.48067756803383
  I   2.38419609811956     -1.84990128886863     -1.29064220813911
  C   0.57908674742758     -1.85010904418687      2.55803380311911
  C   -0.15974800148384      0.38879489836793      2.69845943064222
  C   0.03779892337520      0.41579152256124      4.22249512867035
  H   -1.23289289942571      0.13659388442153      2.49503243265359
  H   0.01147888876832      1.39770084540721      2.29953751823522
  C   -0.12522161853602     -0.98756484991918      4.79414446636881
  H   -0.68145666007577      1.10539299549155      4.67278944169701
  H   1.04594196544996      0.77975636970369      4.43202415752530
  C   0.83098992802809     -1.92878861358966      4.07143575319041
  H   -1.15456766729422     -1.32610732893567      4.63875760744776
  H   0.07274228993195     -0.98857104392559      5.87005562113909
  H   0.69690983404158     -2.95836988775406      4.41330664234229
  H   1.86071364013281     -1.62682932225050      4.27414808767328
  H   1.28544137756668     -2.51275533172708      2.03993247692428
  H   -0.44669065112040     -2.25489117750300      2.36711886795661
